Version 4
SHEET 1 3060 708
WIRE 1984 -336 1600 -336
WIRE 2336 -336 2080 -336
WIRE 1600 -272 1600 -336
WIRE 1776 -272 1600 -272
WIRE 2032 -272 1872 -272
WIRE 2144 -272 2032 -272
WIRE 2336 -272 2336 -336
WIRE 2336 -272 2224 -272
WIRE 1600 -128 1600 -272
WIRE 1600 -128 1264 -128
WIRE 1632 -128 1600 -128
WIRE 1824 -128 1712 -128
WIRE 1952 -128 1824 -128
WIRE 2160 -128 2080 -128
WIRE 2336 -128 2336 -272
WIRE 2336 -128 2160 -128
WIRE 2512 -128 2336 -128
WIRE 2016 -16 2016 -80
WIRE 2160 -16 2160 -48
WIRE 2160 -16 2016 -16
WIRE 2192 -16 2160 -16
WIRE 2304 -16 2272 -16
WIRE 960 0 928 0
WIRE 1088 0 1056 0
WIRE 1264 0 1264 -128
WIRE 1264 0 1184 0
WIRE 2512 0 2512 -128
WIRE 2624 0 2512 0
WIRE 2624 80 2624 0
WIRE 1040 96 1040 48
WIRE 1072 96 1072 -80
WIRE 1072 96 1040 96
WIRE 1104 96 1104 48
WIRE 1104 96 1072 96
WIRE 928 112 928 0
WIRE 976 112 928 112
WIRE 1264 112 1264 0
WIRE 1376 112 1264 112
WIRE 1552 112 1504 112
WIRE 1664 112 1632 112
WIRE 1760 112 1664 112
WIRE 2016 112 1888 112
WIRE 2176 112 2016 112
WIRE 2208 112 2176 112
WIRE 2336 112 2208 112
WIRE 2512 112 2512 0
WIRE 2512 112 2400 112
WIRE 2016 128 2016 112
WIRE 1072 144 1072 96
WIRE 928 160 928 112
WIRE 2208 192 2208 112
WIRE 1440 208 1440 160
WIRE 1664 208 1664 112
WIRE 1664 208 1440 208
WIRE 976 224 976 112
WIRE 1024 224 976 224
WIRE 2016 224 2016 208
WIRE 2624 224 2624 160
WIRE 928 288 928 240
WIRE 1072 288 1072 240
WIRE 1824 336 1824 160
WIRE 2016 336 2016 304
WIRE 2016 336 1824 336
WIRE 2208 336 2208 272
WIRE 2624 336 2624 304
WIRE 2016 464 2016 416
WIRE 2208 464 2208 416
WIRE 2208 464 2016 464
WIRE 2016 496 2016 464
FLAG 928 288 0
FLAG 2624 336 0
FLAG 2016 496 0
FLAG 2304 -16 0
FLAG 1264 -128 VDC_in
FLAG 2624 0 Boost_in
FLAG 2176 112 VLipo
FLAG 1072 288 0
FLAG 1072 -160 Boost_in
FLAG 928 0 Vdc
FLAG 2512 176 0
FLAG 1264 176 0
SYMBOL voltage 928 144 M0
WINDOW 123 0 0 Left 0
WINDOW 39 0 0 Left 0
SYMATTR InstName V3
SYMATTR Value PWL(0 0 1 0 1.5 9 2 9 2.5 0)
SYMBOL res 2000 112 R0
SYMATTR InstName R6
SYMATTR Value 150
SYMBOL res 2000 320 R0
SYMATTR InstName R7
SYMATTR Value 2200
SYMBOL res 2192 176 R0
SYMATTR InstName R9
SYMATTR Value 0.1
SYMBOL voltage 2208 320 R0
SYMATTR InstName Li-Po
SYMATTR Value 3.7
SYMBOL reg3all 2080 -112 R0
SYMATTR InstName U4
SYMATTR SpiceModel LM317TI
SYMBOL res 2608 208 R0
SYMATTR InstName R10
SYMATTR Value 5
SYMBOL res 1648 96 R90
WINDOW 0 0 56 VBottom 2
WINDOW 3 32 56 VTop 2
SYMATTR InstName R8
SYMATTR Value 2.5
SYMBOL reg3all 1504 128 R0
SYMATTR InstName U1
SYMATTR SpiceModel LM317TI
SYMBOL reg3all 1888 128 R0
SYMATTR InstName U2
SYMATTR SpiceModel LM317TI
SYMBOL res 2144 -144 R0
SYMATTR InstName R1
SYMATTR Value 1000
SYMBOL res 2288 -32 R90
WINDOW 0 0 56 VBottom 2
WINDOW 3 32 56 VTop 2
SYMATTR InstName R2
SYMATTR Value 2700
SYMBOL res 2000 208 R0
SYMATTR InstName R3
SYMATTR Value 820
SYMBOL pnp 1872 -208 M270
SYMATTR InstName Q1
SYMATTR Value 2N2907
SYMBOL res 1808 -224 R0
SYMATTR InstName R4
SYMATTR Value 5k
SYMBOL res 1728 -144 R90
WINDOW 0 0 56 VBottom 2
WINDOW 3 32 56 VTop 2
SYMATTR InstName R5
SYMATTR Value 22
SYMBOL npn 1984 -272 R270
SYMATTR InstName Q2
SYMATTR Value mjl21194c
SYMBOL res 2240 -288 R90
WINDOW 0 0 56 VBottom 2
WINDOW 3 32 56 VTop 2
SYMATTR InstName R11
SYMATTR Value 500
SYMBOL pmos 960 48 R270
SYMATTR InstName M1
SYMATTR Value AO6407
SYMBOL pmos 1184 48 M270
SYMATTR InstName M2
SYMATTR Value AO6407
SYMBOL nmos 1024 144 R0
SYMATTR InstName M3
SYMATTR Value AO6408
SYMBOL res 1056 -176 R0
SYMATTR InstName R12
SYMATTR Value 10k
SYMBOL schottky 2336 128 R270
WINDOW 0 32 32 VTop 2
WINDOW 3 0 32 VBottom 2
SYMATTR InstName D1
SYMATTR Value 1N5819
SYMATTR Description Diode
SYMATTR Type diode
SYMBOL cap 2496 112 R0
SYMATTR InstName C1
SYMATTR Value 10µ
SYMBOL cap 1280 112 M0
SYMATTR InstName C2
SYMATTR Value 10µ
SYMBOL voltage 2624 64 R0
SYMATTR InstName V1
SYMATTR Value 0
TEXT 1280 -48 Left 2 !.tran 10 startup
TEXT 1360 40 Left 2 ;Current limiter
TEXT 1744 40 Left 2 ;4.1V regulator
TEXT 2160 184 Left 2 ;Battery cell
TEXT 1936 -200 Left 2 ;4.63V Regulator
TEXT 1336 -336 Left 2 !.include mjl21194c.lib
LINE Normal 1360 224 1360 48 2
LINE Normal 1680 224 1360 224 2
LINE Normal 1680 48 1680 224 2
LINE Normal 1360 48 1680 48 2
LINE Normal 2096 48 1744 48 2
LINE Normal 2096 480 2096 48 2
LINE Normal 1744 480 2096 480 2
LINE Normal 1744 48 1744 480 2
LINE Normal 2304 192 2160 192 2
LINE Normal 2304 448 2304 192 2
LINE Normal 2160 448 2304 448 2
LINE Normal 2160 192 2160 448 2
LINE Normal 2288 -192 1936 -192 2
LINE Normal 2288 32 2288 -192 2
LINE Normal 1936 32 2288 32 2
LINE Normal 1936 -192 1936 32 2
